data_image0
_chemical_formula_structural       Cu9Ni3Cu9Ni3Cu9Ni3Cu9Ni3Cu9Ni3Cu9Ni3Cu9Ni3Cu9Ni3
_chemical_formula_sum              "Cu72 Ni24"
_cell_length_a       10.0351
_cell_length_b       10.0351
_cell_length_c       36.8714
_cell_angle_alpha    90
_cell_angle_beta     90
_cell_angle_gamma    60

_space_group_name_H-M_alt    "P 1"
_space_group_IT_number       1

loop_
  _space_group_symop_operation_xyz
  'x, y, z'

loop_
  _atom_site_type_symbol
  _atom_site_label
  _atom_site_symmetry_multiplicity
  _atom_site_fract_x
  _atom_site_fract_y
  _atom_site_fract_z
  _atom_site_occupancy
  Cu  Cu1       1.0  0.25000  0.50000  0.41667  1.0000
  Cu  Cu2       1.0  0.41667  0.16667  0.36111  1.0000
  Cu  Cu3       1.0  0.08333  0.33333  0.47222  1.0000
  Cu  Cu4       1.0  0.00000  0.25000  0.41667  1.0000
  Cu  Cu5       1.0  0.16667  0.41667  0.36111  1.0000
  Cu  Cu6       1.0  0.33333  0.08333  0.47222  1.0000
  Cu  Cu7       1.0  0.25000  0.25000  0.41667  1.0000
  Cu  Cu8       1.0  0.41667  0.41667  0.36111  1.0000
  Cu  Cu9       1.0  0.08333  0.08333  0.47222  1.0000
  Ni  Ni1       1.0  0.33333  0.33333  0.47222  1.0000
  Ni  Ni2       1.0  0.00000  0.00000  0.41667  1.0000
  Ni  Ni3       1.0  0.16667  0.16667  0.36111  1.0000
  Cu  Cu10      1.0  0.24996  0.50007  0.58305  1.0000
  Cu  Cu11      1.0  0.41678  0.16645  0.52766  1.0000
  Cu  Cu12      1.0  0.08311  0.33379  0.63943  1.0000
  Cu  Cu13      1.0  0.00007  0.24996  0.58305  1.0000
  Cu  Cu14      1.0  0.16645  0.41678  0.52766  1.0000
  Cu  Cu15      1.0  0.33379  0.08311  0.63943  1.0000
  Cu  Cu16      1.0  0.24996  0.24996  0.58305  1.0000
  Cu  Cu17      1.0  0.41678  0.41678  0.52766  1.0000
  Cu  Cu18      1.0  0.08311  0.08311  0.63943  1.0000
  Ni  Ni4       1.0  0.33333  0.33333  0.63875  1.0000
  Ni  Ni5       1.0  0.00000  0.00000  0.58331  1.0000
  Ni  Ni6       1.0  0.16667  0.16667  0.52764  1.0000
  Cu  Cu19      1.0  0.25000  0.00000  0.41667  1.0000
  Cu  Cu20      1.0  0.41667  0.66667  0.36111  1.0000
  Cu  Cu21      1.0  0.08333  0.83333  0.47222  1.0000
  Cu  Cu22      1.0  0.00000  0.75000  0.41667  1.0000
  Cu  Cu23      1.0  0.16667  0.91667  0.36111  1.0000
  Cu  Cu24      1.0  0.33333  0.58333  0.47222  1.0000
  Cu  Cu25      1.0  0.25000  0.75000  0.41667  1.0000
  Cu  Cu26      1.0  0.41667  0.91667  0.36111  1.0000
  Cu  Cu27      1.0  0.08333  0.58333  0.47222  1.0000
  Ni  Ni7       1.0  0.33333  0.83333  0.47222  1.0000
  Ni  Ni8       1.0  0.00000  0.50000  0.41667  1.0000
  Ni  Ni9       1.0  0.16667  0.66667  0.36111  1.0000
  Cu  Cu28      1.0  0.24996  0.00007  0.58305  1.0000
  Cu  Cu29      1.0  0.41678  0.66645  0.52766  1.0000
  Cu  Cu30      1.0  0.08311  0.83379  0.63943  1.0000
  Cu  Cu31      1.0  0.00007  0.74996  0.58305  1.0000
  Cu  Cu32      1.0  0.16645  0.91678  0.52766  1.0000
  Cu  Cu33      1.0  0.33379  0.58311  0.63943  1.0000
  Cu  Cu34      1.0  0.24996  0.74996  0.58305  1.0000
  Cu  Cu35      1.0  0.41678  0.91678  0.52766  1.0000
  Cu  Cu36      1.0  0.08311  0.58311  0.63943  1.0000
  Ni  Ni10      1.0  0.33333  0.83333  0.63875  1.0000
  Ni  Ni11      1.0  1.00000  0.50000  0.58331  1.0000
  Ni  Ni12      1.0  0.16667  0.66667  0.52764  1.0000
  Cu  Cu37      1.0  0.75000  0.50000  0.41667  1.0000
  Cu  Cu38      1.0  0.91667  0.16667  0.36111  1.0000
  Cu  Cu39      1.0  0.58333  0.33333  0.47222  1.0000
  Cu  Cu40      1.0  0.50000  0.25000  0.41667  1.0000
  Cu  Cu41      1.0  0.66667  0.41667  0.36111  1.0000
  Cu  Cu42      1.0  0.83333  0.08333  0.47222  1.0000
  Cu  Cu43      1.0  0.75000  0.25000  0.41667  1.0000
  Cu  Cu44      1.0  0.91667  0.41667  0.36111  1.0000
  Cu  Cu45      1.0  0.58333  0.08333  0.47222  1.0000
  Ni  Ni13      1.0  0.83333  0.33333  0.47222  1.0000
  Ni  Ni14      1.0  0.50000  0.00000  0.41667  1.0000
  Ni  Ni15      1.0  0.66667  0.16667  0.36111  1.0000
  Cu  Cu46      1.0  0.74996  0.50007  0.58305  1.0000
  Cu  Cu47      1.0  0.91678  0.16645  0.52766  1.0000
  Cu  Cu48      1.0  0.58311  0.33379  0.63943  1.0000
  Cu  Cu49      1.0  0.50007  0.24996  0.58305  1.0000
  Cu  Cu50      1.0  0.66645  0.41678  0.52766  1.0000
  Cu  Cu51      1.0  0.83379  0.08311  0.63943  1.0000
  Cu  Cu52      1.0  0.74996  0.24996  0.58305  1.0000
  Cu  Cu53      1.0  0.91678  0.41678  0.52766  1.0000
  Cu  Cu54      1.0  0.58311  0.08311  0.63943  1.0000
  Ni  Ni16      1.0  0.83333  0.33333  0.63875  1.0000
  Ni  Ni17      1.0  0.50000  1.00000  0.58331  1.0000
  Ni  Ni18      1.0  0.66667  0.16667  0.52764  1.0000
  Cu  Cu55      1.0  0.75000  0.00000  0.41667  1.0000
  Cu  Cu56      1.0  0.91667  0.66667  0.36111  1.0000
  Cu  Cu57      1.0  0.58333  0.83333  0.47222  1.0000
  Cu  Cu58      1.0  0.50000  0.75000  0.41667  1.0000
  Cu  Cu59      1.0  0.66667  0.91667  0.36111  1.0000
  Cu  Cu60      1.0  0.83333  0.58333  0.47222  1.0000
  Cu  Cu61      1.0  0.75000  0.75000  0.41667  1.0000
  Cu  Cu62      1.0  0.91667  0.91667  0.36111  1.0000
  Cu  Cu63      1.0  0.58333  0.58333  0.47222  1.0000
  Ni  Ni19      1.0  0.83333  0.83333  0.47222  1.0000
  Ni  Ni20      1.0  0.50000  0.50000  0.41667  1.0000
  Ni  Ni21      1.0  0.66667  0.66667  0.36111  1.0000
  Cu  Cu64      1.0  0.74996  0.00007  0.58305  1.0000
  Cu  Cu65      1.0  0.91678  0.66645  0.52766  1.0000
  Cu  Cu66      1.0  0.58311  0.83379  0.63943  1.0000
  Cu  Cu67      1.0  0.50007  0.74996  0.58305  1.0000
  Cu  Cu68      1.0  0.66645  0.91678  0.52766  1.0000
  Cu  Cu69      1.0  0.83379  0.58311  0.63943  1.0000
  Cu  Cu70      1.0  0.74996  0.74996  0.58305  1.0000
  Cu  Cu71      1.0  0.91678  0.91678  0.52766  1.0000
  Cu  Cu72      1.0  0.58311  0.58311  0.63943  1.0000
  Ni  Ni22      1.0  0.83333  0.83333  0.63875  1.0000
  Ni  Ni23      1.0  0.50000  0.50000  0.58331  1.0000
  Ni  Ni24      1.0  0.66667  0.66667  0.52764  1.0000
