data_image0
_chemical_formula_structural       Pd12Zr6Pd12Zr6Pd12Zr6Pd12Zr6
_chemical_formula_sum              "Pd48 Zr24"
_cell_length_a       9.78568
_cell_length_b       9.97921
_cell_length_c       39.1427
_cell_angle_alpha    90
_cell_angle_beta     90
_cell_angle_gamma    119.361

_space_group_name_H-M_alt    "P 1"
_space_group_IT_number       1

loop_
  _space_group_symop_operation_xyz
  'x, y, z'

loop_
  _atom_site_type_symbol
  _atom_site_label
  _atom_site_symmetry_multiplicity
  _atom_site_fract_x
  _atom_site_fract_y
  _atom_site_fract_z
  _atom_site_occupancy
  Pd  Pd1       1.0  0.33050  0.16099  0.59492  1.0000
  Pd  Pd2       1.0  0.08042  0.16084  0.65512  1.0000
  Pd  Pd3       1.0  0.41958  0.33916  0.65512  1.0000
  Pd  Pd4       1.0  0.16950  0.33901  0.59492  1.0000
  Pd  Pd5       1.0  0.33132  0.16264  0.46875  1.0000
  Pd  Pd6       1.0  0.08173  0.16346  0.53176  1.0000
  Pd  Pd7       1.0  0.41827  0.33654  0.53176  1.0000
  Pd  Pd8       1.0  0.16868  0.33736  0.46875  1.0000
  Pd  Pd9       1.0  0.33132  0.16264  0.34375  1.0000
  Pd  Pd10      1.0  0.08132  0.16264  0.40625  1.0000
  Pd  Pd11      1.0  0.41868  0.33736  0.40625  1.0000
  Pd  Pd12      1.0  0.16868  0.33736  0.34375  1.0000
  Zr  Zr1       1.0  0.25000  0.50000  0.65524  1.0000
  Zr  Zr2       1.0  0.50000  0.50000  0.59374  1.0000
  Zr  Zr3       1.0  0.25000  0.50000  0.53140  1.0000
  Zr  Zr4       1.0  0.50000  0.50000  0.46875  1.0000
  Zr  Zr5       1.0  0.25000  0.50000  0.40625  1.0000
  Zr  Zr6       1.0  0.50000  0.00000  0.34375  1.0000
  Pd  Pd13      1.0  0.33050  0.66099  0.59492  1.0000
  Pd  Pd14      1.0  0.08042  0.66084  0.65512  1.0000
  Pd  Pd15      1.0  0.41958  0.83916  0.65512  1.0000
  Pd  Pd16      1.0  0.16950  0.83901  0.59492  1.0000
  Pd  Pd17      1.0  0.33132  0.66264  0.46875  1.0000
  Pd  Pd18      1.0  0.08173  0.66346  0.53176  1.0000
  Pd  Pd19      1.0  0.41827  0.83654  0.53176  1.0000
  Pd  Pd20      1.0  0.16868  0.83736  0.46875  1.0000
  Pd  Pd21      1.0  0.33132  0.66264  0.34375  1.0000
  Pd  Pd22      1.0  0.08132  0.66264  0.40625  1.0000
  Pd  Pd23      1.0  0.41868  0.83736  0.40625  1.0000
  Pd  Pd24      1.0  0.16868  0.83736  0.34375  1.0000
  Zr  Zr7       1.0  0.25000  0.00000  0.65524  1.0000
  Zr  Zr8       1.0  0.50000  0.00000  0.59374  1.0000
  Zr  Zr9       1.0  0.25000  1.00000  0.53140  1.0000
  Zr  Zr10      1.0  0.50000  0.00000  0.46875  1.0000
  Zr  Zr11      1.0  0.25000  0.00000  0.40625  1.0000
  Zr  Zr12      1.0  0.50000  0.50000  0.34375  1.0000
  Pd  Pd25      1.0  0.83050  0.16099  0.59492  1.0000
  Pd  Pd26      1.0  0.58042  0.16084  0.65512  1.0000
  Pd  Pd27      1.0  0.91958  0.33916  0.65512  1.0000
  Pd  Pd28      1.0  0.66950  0.33901  0.59492  1.0000
  Pd  Pd29      1.0  0.83132  0.16264  0.46875  1.0000
  Pd  Pd30      1.0  0.58173  0.16346  0.53176  1.0000
  Pd  Pd31      1.0  0.91827  0.33654  0.53176  1.0000
  Pd  Pd32      1.0  0.66868  0.33736  0.46875  1.0000
  Pd  Pd33      1.0  0.83132  0.16264  0.34375  1.0000
  Pd  Pd34      1.0  0.58132  0.16264  0.40625  1.0000
  Pd  Pd35      1.0  0.91868  0.33736  0.40625  1.0000
  Pd  Pd36      1.0  0.66868  0.33736  0.34375  1.0000
  Zr  Zr13      1.0  0.75000  0.50000  0.65524  1.0000
  Zr  Zr14      1.0  0.00000  0.50000  0.59374  1.0000
  Zr  Zr15      1.0  0.75000  0.50000  0.53140  1.0000
  Zr  Zr16      1.0  0.00000  0.50000  0.46875  1.0000
  Zr  Zr17      1.0  0.75000  0.50000  0.40625  1.0000
  Zr  Zr18      1.0  0.00000  0.00000  0.34375  1.0000
  Pd  Pd37      1.0  0.83050  0.66099  0.59492  1.0000
  Pd  Pd38      1.0  0.58042  0.66084  0.65512  1.0000
  Pd  Pd39      1.0  0.91958  0.83916  0.65512  1.0000
  Pd  Pd40      1.0  0.66950  0.83901  0.59492  1.0000
  Pd  Pd41      1.0  0.83132  0.66264  0.46875  1.0000
  Pd  Pd42      1.0  0.58173  0.66346  0.53176  1.0000
  Pd  Pd43      1.0  0.91827  0.83654  0.53176  1.0000
  Pd  Pd44      1.0  0.66868  0.83736  0.46875  1.0000
  Pd  Pd45      1.0  0.83132  0.66264  0.34375  1.0000
  Pd  Pd46      1.0  0.58132  0.66264  0.40625  1.0000
  Pd  Pd47      1.0  0.91868  0.83736  0.40625  1.0000
  Pd  Pd48      1.0  0.66868  0.83736  0.34375  1.0000
  Zr  Zr19      1.0  0.75000  0.00000  0.65524  1.0000
  Zr  Zr20      1.0  0.00000  0.00000  0.59374  1.0000
  Zr  Zr21      1.0  0.75000  1.00000  0.53140  1.0000
  Zr  Zr22      1.0  0.00000  0.00000  0.46875  1.0000
  Zr  Zr23      1.0  0.75000  0.00000  0.40625  1.0000
  Zr  Zr24      1.0  0.00000  0.50000  0.34375  1.0000
