data_image0
_chemical_formula_structural       C8
_chemical_formula_sum              "C8"
_cell_length_a       4.80009
_cell_length_b       4.80009
_cell_length_c       35.2733
_cell_angle_alpha    90
_cell_angle_beta     90
_cell_angle_gamma    120

_space_group_name_H-M_alt    "P 1"
_space_group_IT_number       1

loop_
  _space_group_symop_operation_xyz
  'x, y, z'

loop_
  _atom_site_type_symbol
  _atom_site_label
  _atom_site_symmetry_multiplicity
  _atom_site_fract_x
  _atom_site_fract_y
  _atom_site_fract_z
  _atom_site_occupancy
  C   C1        1.0  0.99196  0.98727  0.73046  1.0000
  C   C2        1.0  0.15829  0.32058  0.73047  1.0000
  C   C3        1.0  0.49196  0.98726  0.73048  1.0000
  C   C4        1.0  0.65830  0.32057  0.73051  1.0000
  C   C5        1.0  0.99195  0.48725  0.73048  1.0000
  C   C6        1.0  0.15829  0.82058  0.73047  1.0000
  C   C7        1.0  0.49196  0.48727  0.73048  1.0000
  C   C8        1.0  0.65828  0.82057  0.73047  1.0000
