data_image0
_chemical_formula_structural       CNb6Ni12
_chemical_formula_sum              "C1 Nb6 Ni12"
_cell_length_a       4.78
_cell_length_b       4.78
_cell_length_c       35.1257
_cell_angle_alpha    90
_cell_angle_beta     90
_cell_angle_gamma    60

_space_group_name_H-M_alt    "P 1"
_space_group_IT_number       1

loop_
  _space_group_symop_operation_xyz
  'x, y, z'

loop_
  _atom_site_type_symbol
  _atom_site_label
  _atom_site_symmetry_multiplicity
  _atom_site_fract_x
  _atom_site_fract_y
  _atom_site_fract_z
  _atom_site_occupancy
  C   C1        1.0  0.58096  0.56924  0.65594  1.0000
  Nb  Nb1       1.0  0.28682  0.42637  0.38404  1.0000
  Nb  Nb2       1.0  0.95348  0.09303  0.49515  1.0000
  Nb  Nb3       1.0  0.63273  0.77451  0.60457  1.0000
  Nb  Nb4       1.0  0.96266  0.09072  0.57835  1.0000
  Nb  Nb5       1.0  0.62015  0.75970  0.35626  1.0000
  Nb  Nb6       1.0  0.28682  0.42637  0.46737  1.0000
  Ni  Ni1       1.0  0.78682  0.92637  0.42571  1.0000
  Ni  Ni2       1.0  0.45348  0.59303  0.53682  1.0000
  Ni  Ni3       1.0  0.02429  0.31069  0.64926  1.0000
  Ni  Ni4       1.0  0.28682  0.92637  0.42571  1.0000
  Ni  Ni5       1.0  0.95348  0.59303  0.53682  1.0000
  Ni  Ni6       1.0  0.58208  0.18761  0.65523  1.0000
  Ni  Ni7       1.0  0.78682  0.42637  0.42571  1.0000
  Ni  Ni8       1.0  0.45348  0.09303  0.53682  1.0000
  Ni  Ni9       1.0  0.14278  0.76560  0.64816  1.0000
  Ni  Ni10      1.0  0.62015  0.75970  0.48126  1.0000
  Ni  Ni11      1.0  0.28973  0.41446  0.59328  1.0000
  Ni  Ni12      1.0  0.95348  0.09303  0.37015  1.0000
