data_image0
_chemical_formula_structural       C8
_chemical_formula_sum              "C8"
_cell_length_a       5.0746
_cell_length_b       5.0746
_cell_length_c       31.0754
_cell_angle_alpha    90
_cell_angle_beta     90
_cell_angle_gamma    60

_space_group_name_H-M_alt    "P 1"
_space_group_IT_number       1

loop_
  _space_group_symop_operation_xyz
  'x, y, z'

loop_
  _atom_site_type_symbol
  _atom_site_label
  _atom_site_symmetry_multiplicity
  _atom_site_fract_x
  _atom_site_fract_y
  _atom_site_fract_z
  _atom_site_occupancy
  C   C1        1.0  0.99990  0.99993  0.73790  1.0000
  C   C2        1.0  0.83343  0.33344  0.73792  1.0000
  C   C3        1.0  0.49992  0.99990  0.73794  1.0000
  C   C4        1.0  0.33342  0.33346  0.73799  1.0000
  C   C5        1.0  0.49992  0.49995  0.73795  1.0000
  C   C6        1.0  0.33341  0.83346  0.73792  1.0000
  C   C7        1.0  0.99987  0.49995  0.73795  1.0000
  C   C8        1.0  0.83343  0.83346  0.73792  1.0000
