data_image0
_chemical_formula_structural       CNb4Pd8
_chemical_formula_sum              "C1 Nb4 Pd8"
_cell_length_a       4.82013
_cell_length_b       4.85685
_cell_length_c       32.1667
_cell_angle_alpha    90
_cell_angle_beta     90
_cell_angle_gamma    60.2498

_space_group_name_H-M_alt    "P 1"
_space_group_IT_number       1

loop_
  _space_group_symop_operation_xyz
  'x, y, z'

loop_
  _atom_site_type_symbol
  _atom_site_label
  _atom_site_symmetry_multiplicity
  _atom_site_fract_x
  _atom_site_fract_y
  _atom_site_fract_z
  _atom_site_occupancy
  C   C1        1.0  0.94717  0.00124  0.63721  1.0000
  Nb  Nb1       1.0  0.30360  0.99967  0.60585  1.0000
  Nb  Nb2       1.0  0.91774  0.00004  0.53290  1.0000
  Nb  Nb3       1.0  0.57135  0.00000  0.46290  1.0000
  Nb  Nb4       1.0  0.21425  0.00000  0.39237  1.0000
  Pd  Pd1       1.0  0.95374  0.65441  0.60473  1.0000
  Pd  Pd2       1.0  0.58496  0.66725  0.53335  1.0000
  Pd  Pd3       1.0  0.25155  0.33186  0.53345  1.0000
  Pd  Pd4       1.0  0.60773  0.34585  0.60458  1.0000
  Pd  Pd5       1.0  0.23714  0.66841  0.46290  1.0000
  Pd  Pd6       1.0  0.87990  0.66841  0.38983  1.0000
  Pd  Pd7       1.0  0.54839  0.33159  0.39110  1.0000
  Pd  Pd8       1.0  0.90548  0.33159  0.46163  1.0000
