data_image0
_chemical_formula_structural       C8
_chemical_formula_sum              "C8"
_cell_length_a       4.87422
_cell_length_b       4.98742
_cell_length_c       34.095
_cell_angle_alpha    90
_cell_angle_beta     90
_cell_angle_gamma    119.252

_space_group_name_H-M_alt    "P 1"
_space_group_IT_number       1

loop_
  _space_group_symop_operation_xyz
  'x, y, z'

loop_
  _atom_site_type_symbol
  _atom_site_label
  _atom_site_symmetry_multiplicity
  _atom_site_fract_x
  _atom_site_fract_y
  _atom_site_fract_z
  _atom_site_occupancy
  C   C1        1.0  0.01639  0.03117  0.71617  1.0000
  C   C2        1.0  0.18279  0.36382  0.71618  1.0000
  C   C3        1.0  0.51639  0.03117  0.71617  1.0000
  C   C4        1.0  0.68279  0.36382  0.71618  1.0000
  C   C5        1.0  0.01635  0.53108  0.71621  1.0000
  C   C6        1.0  0.18282  0.86383  0.71620  1.0000
  C   C7        1.0  0.51635  0.53108  0.71622  1.0000
  C   C8        1.0  0.68282  0.86384  0.71620  1.0000
