data_image0
_chemical_formula_structural       CMo4Pd8
_chemical_formula_sum              "C1 Mo4 Pd8"
_cell_length_a       4.74106
_cell_length_b       4.74106
_cell_length_c       31.4267
_cell_angle_alpha    90
_cell_angle_beta     90
_cell_angle_gamma    119.499

_space_group_name_H-M_alt    "P 1"
_space_group_IT_number       1

loop_
  _space_group_symop_operation_xyz
  'x, y, z'

loop_
  _atom_site_type_symbol
  _atom_site_label
  _atom_site_symmetry_multiplicity
  _atom_site_fract_x
  _atom_site_fract_y
  _atom_site_fract_z
  _atom_site_occupancy
  C   C1        1.0  0.42539  0.42547  0.63977  1.0000
  Mo  Mo1       1.0  0.71271  0.71334  0.38710  1.0000
  Mo  Mo2       1.0  0.07127  0.07133  0.46446  1.0000
  Mo  Mo3       1.0  0.40397  0.40425  0.53414  1.0000
  Mo  Mo4       1.0  0.72941  0.72969  0.60098  1.0000
  Pd  Pd1       1.0  0.40447  0.73593  0.45995  1.0000
  Pd  Pd2       1.0  0.04812  0.37926  0.39162  1.0000
  Pd  Pd3       1.0  0.37951  0.04875  0.39162  1.0000
  Pd  Pd4       1.0  0.73586  0.40542  0.45995  1.0000
  Pd  Pd5       1.0  0.05305  0.38977  0.60661  1.0000
  Pd  Pd6       1.0  0.73316  0.07379  0.53237  1.0000
  Pd  Pd7       1.0  0.07351  0.73332  0.53240  1.0000
  Pd  Pd8       1.0  0.38974  0.05334  0.60660  1.0000
