data_image0
_chemical_formula_structural       Hf6Ni12C8
_chemical_formula_sum              "Hf6 Ni12 C8"
_cell_length_a       4.8079
_cell_length_b       4.8079
_cell_length_c       35.3307
_cell_angle_alpha    90
_cell_angle_beta     90
_cell_angle_gamma    120

_space_group_name_H-M_alt    "P 1"
_space_group_IT_number       1

loop_
  _space_group_symop_operation_xyz
  'x, y, z'

loop_
  _atom_site_type_symbol
  _atom_site_label
  _atom_site_symmetry_multiplicity
  _atom_site_fract_x
  _atom_site_fract_y
  _atom_site_fract_z
  _atom_site_occupancy
  Hf  Hf1       1.0  0.16667  0.33333  0.48611  1.0000
  Hf  Hf2       1.0  0.83333  0.66667  0.37500  1.0000
  Hf  Hf3       1.0  0.50006  0.00078  0.60068  1.0000
  Hf  Hf4       1.0  0.16734  0.33467  0.56925  1.0000
  Hf  Hf5       1.0  0.83333  0.66667  0.45833  1.0000
  Hf  Hf6       1.0  0.50000  0.00000  0.34722  1.0000
  Ni  Ni1       1.0  0.50000  0.00000  0.47222  1.0000
  Ni  Ni2       1.0  0.16667  0.33333  0.36111  1.0000
  Ni  Ni3       1.0  0.83348  0.66738  0.58222  1.0000
  Ni  Ni4       1.0  0.00035  0.00138  0.63448  1.0000
  Ni  Ni5       1.0  0.66667  0.33333  0.52778  1.0000
  Ni  Ni6       1.0  0.33333  0.66667  0.41667  1.0000
  Ni  Ni7       1.0  0.16667  0.83333  0.52778  1.0000
  Ni  Ni8       1.0  0.83333  0.16667  0.41667  1.0000
  Ni  Ni9       1.0  0.49857  0.49955  0.63444  1.0000
  Ni  Ni10      1.0  0.00056  0.49918  0.63446  1.0000
  Ni  Ni11      1.0  0.66667  0.83333  0.52778  1.0000
  Ni  Ni12      1.0  0.33333  0.16667  0.41667  1.0000
  C   C1        1.0  0.98771  0.99699  0.69991  1.0000
  C   C2        1.0  0.15455  0.33079  0.69898  1.0000
  C   C3        1.0  0.48826  0.99785  0.70267  1.0000
  C   C4        1.0  0.65411  0.32963  0.70110  1.0000
  C   C5        1.0  0.98793  0.49817  0.69999  1.0000
  C   C6        1.0  0.15585  0.83141  0.70109  1.0000
  C   C7        1.0  0.48917  0.49836  0.69980  1.0000
  C   C8        1.0  0.65407  0.83139  0.70114  1.0000
