data_image0
_chemical_formula_structural       Nb6Pd12Nb6Pd12Nb6Pd12Nb6Pd12
_chemical_formula_sum              "Nb24 Pd48"
_cell_length_a       9.64834
_cell_length_b       9.72185
_cell_length_c       36.8472
_cell_angle_alpha    91.5453
_cell_angle_beta     93.1152
_cell_angle_gamma    60.2498

_space_group_name_H-M_alt    "P 1"
_space_group_IT_number       1

loop_
  _space_group_symop_operation_xyz
  'x, y, z'

loop_
  _atom_site_type_symbol
  _atom_site_label
  _atom_site_symmetry_multiplicity
  _atom_site_fract_x
  _atom_site_fract_y
  _atom_site_fract_z
  _atom_site_occupancy
  Nb  Nb1       1.0  0.09659  1.00000  0.65383  1.0000
  Nb  Nb2       1.0  0.40363  1.00000  0.59444  1.0000
  Nb  Nb3       1.0  0.22109  0.50000  0.53192  1.0000
  Nb  Nb4       1.0  0.03125  0.50000  0.46875  1.0000
  Nb  Nb5       1.0  0.34375  0.50000  0.40625  1.0000
  Nb  Nb6       1.0  0.15625  0.00000  0.34375  1.0000
  Pd  Pd1       1.0  0.42704  0.33465  0.65684  1.0000
  Pd  Pd2       1.0  0.23616  0.33432  0.59398  1.0000
  Pd  Pd3       1.0  0.07048  0.16568  0.59398  1.0000
  Pd  Pd4       1.0  0.26171  0.16534  0.65684  1.0000
  Pd  Pd5       1.0  0.05126  0.33457  0.53138  1.0000
  Pd  Pd6       1.0  0.36415  0.33421  0.46875  1.0000
  Pd  Pd7       1.0  0.19835  0.16579  0.46875  1.0000
  Pd  Pd8       1.0  0.38584  0.16543  0.53138  1.0000
  Pd  Pd9       1.0  0.17665  0.33421  0.40625  1.0000
  Pd  Pd10      1.0  0.48915  0.33421  0.34375  1.0000
  Pd  Pd11      1.0  0.32335  0.16579  0.34375  1.0000
  Pd  Pd12      1.0  0.01085  0.16579  0.40625  1.0000
  Nb  Nb7       1.0  0.09658  0.50000  0.65383  1.0000
  Nb  Nb8       1.0  0.40364  0.50000  0.59445  1.0000
  Nb  Nb9       1.0  0.22109  0.00000  0.53192  1.0000
  Nb  Nb10      1.0  0.03125  0.00000  0.46875  1.0000
  Nb  Nb11      1.0  0.34375  0.00000  0.40625  1.0000
  Nb  Nb12      1.0  0.15625  0.50000  0.34375  1.0000
  Pd  Pd13      1.0  0.42704  0.83465  0.65684  1.0000
  Pd  Pd14      1.0  0.23616  0.83433  0.59398  1.0000
  Pd  Pd15      1.0  0.07048  0.66568  0.59398  1.0000
  Pd  Pd16      1.0  0.26169  0.66535  0.65684  1.0000
  Pd  Pd17      1.0  0.05126  0.83457  0.53138  1.0000
  Pd  Pd18      1.0  0.36415  0.83421  0.46875  1.0000
  Pd  Pd19      1.0  0.19835  0.66579  0.46875  1.0000
  Pd  Pd20      1.0  0.38584  0.66543  0.53138  1.0000
  Pd  Pd21      1.0  0.17665  0.83421  0.40625  1.0000
  Pd  Pd22      1.0  0.48915  0.83421  0.34375  1.0000
  Pd  Pd23      1.0  0.32335  0.66579  0.34375  1.0000
  Pd  Pd24      1.0  0.01085  0.66579  0.40625  1.0000
  Nb  Nb13      1.0  0.59659  1.00000  0.65383  1.0000
  Nb  Nb14      1.0  0.90363  0.00000  0.59445  1.0000
  Nb  Nb15      1.0  0.72109  0.50000  0.53192  1.0000
  Nb  Nb16      1.0  0.53125  0.50000  0.46875  1.0000
  Nb  Nb17      1.0  0.84375  0.50000  0.40625  1.0000
  Nb  Nb18      1.0  0.65625  0.00000  0.34375  1.0000
  Pd  Pd25      1.0  0.92704  0.33465  0.65684  1.0000
  Pd  Pd26      1.0  0.73616  0.33433  0.59398  1.0000
  Pd  Pd27      1.0  0.57048  0.16567  0.59398  1.0000
  Pd  Pd28      1.0  0.76169  0.16535  0.65684  1.0000
  Pd  Pd29      1.0  0.55126  0.33457  0.53138  1.0000
  Pd  Pd30      1.0  0.86415  0.33421  0.46875  1.0000
  Pd  Pd31      1.0  0.69835  0.16579  0.46875  1.0000
  Pd  Pd32      1.0  0.88584  0.16543  0.53138  1.0000
  Pd  Pd33      1.0  0.67665  0.33421  0.40625  1.0000
  Pd  Pd34      1.0  0.98915  0.33421  0.34375  1.0000
  Pd  Pd35      1.0  0.82335  0.16579  0.34375  1.0000
  Pd  Pd36      1.0  0.51085  0.16579  0.40625  1.0000
  Nb  Nb19      1.0  0.59658  0.50000  0.65383  1.0000
  Nb  Nb20      1.0  0.90364  0.50000  0.59445  1.0000
  Nb  Nb21      1.0  0.72109  1.00000  0.53192  1.0000
  Nb  Nb22      1.0  0.53125  0.00000  0.46875  1.0000
  Nb  Nb23      1.0  0.84375  0.00000  0.40625  1.0000
  Nb  Nb24      1.0  0.65625  0.50000  0.34375  1.0000
  Pd  Pd37      1.0  0.92705  0.83466  0.65684  1.0000
  Pd  Pd38      1.0  0.73616  0.83432  0.59398  1.0000
  Pd  Pd39      1.0  0.57048  0.66567  0.59398  1.0000
  Pd  Pd40      1.0  0.76169  0.66535  0.65684  1.0000
  Pd  Pd41      1.0  0.55126  0.83457  0.53138  1.0000
  Pd  Pd42      1.0  0.86415  0.83421  0.46875  1.0000
  Pd  Pd43      1.0  0.69835  0.66579  0.46875  1.0000
  Pd  Pd44      1.0  0.88584  0.66543  0.53138  1.0000
  Pd  Pd45      1.0  0.67665  0.83421  0.40625  1.0000
  Pd  Pd46      1.0  0.98915  0.83421  0.34375  1.0000
  Pd  Pd47      1.0  0.82335  0.66579  0.34375  1.0000
  Pd  Pd48      1.0  0.51085  0.66579  0.40625  1.0000
