data_image0
_chemical_formula_structural       CCu15Zr3
_chemical_formula_sum              "C1 Cu15 Zr3"
_cell_length_a       4.82081
_cell_length_b       4.82081
_cell_length_c       35.4256
_cell_angle_alpha    90
_cell_angle_beta     90
_cell_angle_gamma    120

_space_group_name_H-M_alt    "P 1"
_space_group_IT_number       1

loop_
  _space_group_symop_operation_xyz
  'x, y, z'

loop_
  _atom_site_type_symbol
  _atom_site_label
  _atom_site_symmetry_multiplicity
  _atom_site_fract_x
  _atom_site_fract_y
  _atom_site_fract_z
  _atom_site_occupancy
  C   C1        1.0  0.00043  0.68146  0.66252  1.0000
  Cu  Cu1       1.0  0.00000  0.00000  0.54167  1.0000
  Cu  Cu2       1.0  0.66667  0.33333  0.43056  1.0000
  Cu  Cu3       1.0  0.36216  0.66429  0.64781  1.0000
  Cu  Cu4       1.0  0.99443  0.50088  0.58307  1.0000
  Cu  Cu5       1.0  0.66870  0.83435  0.47214  1.0000
  Cu  Cu6       1.0  0.33537  0.16769  0.36103  1.0000
  Cu  Cu7       1.0  0.16565  0.83435  0.47214  1.0000
  Cu  Cu8       1.0  0.83231  0.16769  0.36103  1.0000
  Cu  Cu9       1.0  0.50294  0.50391  0.58348  1.0000
  Cu  Cu10      1.0  0.16565  0.33130  0.47214  1.0000
  Cu  Cu11      1.0  0.83231  0.66463  0.36103  1.0000
  Cu  Cu12      1.0  0.49400  0.00274  0.58326  1.0000
  Cu  Cu13      1.0  0.63338  0.30158  0.64838  1.0000
  Cu  Cu14      1.0  0.33333  0.66667  0.52803  1.0000
  Cu  Cu15      1.0  0.00000  0.00000  0.41692  1.0000
  Zr  Zr1       1.0  0.33333  0.66667  0.40278  1.0000
  Zr  Zr2       1.0  0.99724  0.00910  0.62486  1.0000
  Zr  Zr3       1.0  0.66667  0.33333  0.51389  1.0000
