data_image0
_chemical_formula_structural       CCu2Ni2Cu2Ni2Cu2Ni2Cu2Ni2Cu2Ni2Cu2Ni2Cu2Ni2Cu2Ni2
_chemical_formula_sum              "C1 Cu16 Ni16"
_cell_length_a       4.91024
_cell_length_b       8.76716
_cell_length_c       30.6851
_cell_angle_alpha    68.1215
_cell_angle_beta     90
_cell_angle_gamma    90

_space_group_name_H-M_alt    "P 1"
_space_group_IT_number       1

loop_
  _space_group_symop_operation_xyz
  'x, y, z'

loop_
  _atom_site_type_symbol
  _atom_site_label
  _atom_site_symmetry_multiplicity
  _atom_site_fract_x
  _atom_site_fract_y
  _atom_site_fract_z
  _atom_site_occupancy
  C   C1        1.0  0.74988  0.38700  0.64522  1.0000
  Cu  Cu1       1.0  0.25000  0.00000  0.39286  1.0000
  Cu  Cu2       1.0  0.25000  0.25000  0.46429  1.0000
  Ni  Ni1       1.0  0.00000  0.00000  0.46429  1.0000
  Ni  Ni2       1.0  0.00000  0.25000  0.39286  1.0000
  Cu  Cu3       1.0  0.24994  0.99771  0.53564  1.0000
  Cu  Cu4       1.0  0.24995  0.24255  0.60945  1.0000
  Ni  Ni3       1.0  0.00062  0.99930  0.60710  1.0000
  Ni  Ni4       1.0  0.99950  0.24870  0.53639  1.0000
  Cu  Cu5       1.0  0.25000  0.50000  0.39286  1.0000
  Cu  Cu6       1.0  0.25000  0.75000  0.46429  1.0000
  Ni  Ni5       1.0  0.00000  0.50000  0.46429  1.0000
  Ni  Ni6       1.0  0.00000  0.75000  0.39286  1.0000
  Cu  Cu7       1.0  0.24995  0.49766  0.53609  1.0000
  Cu  Cu8       1.0  0.24995  0.74892  0.60932  1.0000
  Ni  Ni7       1.0  0.00842  0.50101  0.60891  1.0000
  Ni  Ni8       1.0  0.99836  0.74785  0.53638  1.0000
  Cu  Cu9       1.0  0.75000  0.00000  0.39286  1.0000
  Cu  Cu10      1.0  0.75000  0.25000  0.46429  1.0000
  Ni  Ni9       1.0  0.50000  0.00000  0.46429  1.0000
  Ni  Ni10      1.0  0.50000  0.25000  0.39286  1.0000
  Cu  Cu11      1.0  0.74999  0.99852  0.53578  1.0000
  Cu  Cu12      1.0  0.74995  0.23608  0.61236  1.0000
  Ni  Ni11      1.0  0.49920  0.99935  0.60705  1.0000
  Ni  Ni12      1.0  0.50043  0.24871  0.53638  1.0000
  Cu  Cu13      1.0  0.75000  0.50000  0.39286  1.0000
  Cu  Cu14      1.0  0.75000  0.75000  0.46429  1.0000
  Ni  Ni13      1.0  0.50000  0.50000  0.46429  1.0000
  Ni  Ni14      1.0  0.50000  0.75000  0.39286  1.0000
  Cu  Cu15      1.0  0.74997  0.49775  0.53559  1.0000
  Cu  Cu16      1.0  0.74993  0.74926  0.60923  1.0000
  Ni  Ni15      1.0  0.49149  0.50103  0.60887  1.0000
  Ni  Ni16      1.0  0.50173  0.74791  0.53637  1.0000
