data_image0
_chemical_formula_structural       C8
_chemical_formula_sum              "C8"
_cell_length_a       4.92385
_cell_length_b       4.92385
_cell_length_c       30.1523
_cell_angle_alpha    90
_cell_angle_beta     90
_cell_angle_gamma    60

_space_group_name_H-M_alt    "P 1"
_space_group_IT_number       1

loop_
  _space_group_symop_operation_xyz
  'x, y, z'

loop_
  _atom_site_type_symbol
  _atom_site_label
  _atom_site_symmetry_multiplicity
  _atom_site_fract_x
  _atom_site_fract_y
  _atom_site_fract_z
  _atom_site_occupancy
  C   C1        1.0  0.00039  0.00029  0.74006  1.0000
  C   C2        1.0  0.16691  0.66702  0.74009  1.0000
  C   C3        1.0  0.50043  0.00026  0.74010  1.0000
  C   C4        1.0  0.66690  0.66704  0.74006  1.0000
  C   C5        1.0  0.50043  0.50032  0.74010  1.0000
  C   C6        1.0  0.66685  0.16707  0.74010  1.0000
  C   C7        1.0  0.00037  0.50032  0.74010  1.0000
  C   C8        1.0  0.16690  0.16706  0.74009  1.0000
