data_image0
_chemical_formula_structural       C8
_chemical_formula_sum              "C8"
_cell_length_a       4.73993
_cell_length_b       4.73993
_cell_length_c       26.9318
_cell_angle_alpha    90.2549
_cell_angle_beta     90.2549
_cell_angle_gamma    119.499

_space_group_name_H-M_alt    "P 1"
_space_group_IT_number       1

loop_
  _space_group_symop_operation_xyz
  'x, y, z'

loop_
  _atom_site_type_symbol
  _atom_site_label
  _atom_site_symmetry_multiplicity
  _atom_site_fract_x
  _atom_site_fract_y
  _atom_site_fract_z
  _atom_site_occupancy
  C   C1        1.0  0.99214  0.98426  0.75458  1.0000
  C   C2        1.0  0.15885  0.31731  0.75460  1.0000
  C   C3        1.0  0.49216  0.98428  0.75463  1.0000
  C   C4        1.0  0.65889  0.31735  0.75464  1.0000
  C   C5        1.0  0.99218  0.48429  0.75461  1.0000
  C   C6        1.0  0.15889  0.81734  0.75459  1.0000
  C   C7        1.0  0.49213  0.48426  0.75463  1.0000
  C   C8        1.0  0.65885  0.81731  0.75461  1.0000
