data_image0
_chemical_formula_structural       Y2Cu10
_chemical_formula_sum              "Y2 Cu10"
_cell_length_a       4.97103
_cell_length_b       4.97103
_cell_length_c       24.0864
_cell_angle_alpha    90
_cell_angle_beta     90
_cell_angle_gamma    120

_space_group_name_H-M_alt    "P 1"
_space_group_IT_number       1

loop_
  _space_group_symop_operation_xyz
  'x, y, z'

loop_
  _atom_site_type_symbol
  _atom_site_label
  _atom_site_symmetry_multiplicity
  _atom_site_fract_x
  _atom_site_fract_y
  _atom_site_fract_z
  _atom_site_occupancy
  Y   Y1        1.0  0.00000  0.00000  0.45833  1.0000
  Y   Y2        1.0  0.99688  0.00375  0.62354  1.0000
  Cu  Cu1       1.0  0.66667  0.33333  0.45833  1.0000
  Cu  Cu2       1.0  0.33333  0.66667  0.45833  1.0000
  Cu  Cu3       1.0  0.00000  0.50000  0.37500  1.0000
  Cu  Cu4       1.0  0.50000  0.00000  0.37500  1.0000
  Cu  Cu5       1.0  0.50000  0.50000  0.37500  1.0000
  Cu  Cu6       1.0  0.66682  0.34296  0.62475  1.0000
  Cu  Cu7       1.0  0.32370  0.66675  0.62473  1.0000
  Cu  Cu8       1.0  0.99334  0.49986  0.54164  1.0000
  Cu  Cu9       1.0  0.49094  0.00088  0.54194  1.0000
  Cu  Cu10      1.0  0.49603  0.50309  0.54176  1.0000
