data_image0
_chemical_formula_structural       Ni24
_chemical_formula_sum              "Ni24"
_cell_length_a       4.89375
_cell_length_b       4.89375
_cell_length_c       29.9679
_cell_angle_alpha    90
_cell_angle_beta     90
_cell_angle_gamma    120

_space_group_name_H-M_alt    "P 1"
_space_group_IT_number       1

loop_
  _space_group_symop_operation_xyz
  'x, y, z'

loop_
  _atom_site_type_symbol
  _atom_site_label
  _atom_site_symmetry_multiplicity
  _atom_site_fract_x
  _atom_site_fract_y
  _atom_site_fract_z
  _atom_site_occupancy
  Ni  Ni1       1.0  0.16667  0.33333  0.33333  1.0000
  Ni  Ni2       1.0  0.50000  0.00000  0.46667  1.0000
  Ni  Ni3       1.0  0.33333  0.16667  0.40000  1.0000
  Ni  Ni4       1.0  0.16667  0.33333  0.53333  1.0000
  Ni  Ni5       1.0  0.49991  0.49996  0.66607  1.0000
  Ni  Ni6       1.0  0.33338  0.16662  0.60033  1.0000
  Ni  Ni7       1.0  0.16667  0.83333  0.33333  1.0000
  Ni  Ni8       1.0  0.50000  0.50000  0.46667  1.0000
  Ni  Ni9       1.0  0.33333  0.66667  0.40000  1.0000
  Ni  Ni10      1.0  0.16667  0.83333  0.53333  1.0000
  Ni  Ni11      1.0  0.49998  0.99999  0.66603  1.0000
  Ni  Ni12      1.0  0.33333  0.66671  0.60031  1.0000
  Ni  Ni13      1.0  0.66667  0.33333  0.33333  1.0000
  Ni  Ni14      1.0  0.00000  0.00000  0.46667  1.0000
  Ni  Ni15      1.0  0.83333  0.16667  0.40000  1.0000
  Ni  Ni16      1.0  0.66667  0.33333  0.53333  1.0000
  Ni  Ni17      1.0  0.00004  0.49998  0.66606  1.0000
  Ni  Ni18      1.0  0.83319  0.16661  0.60031  1.0000
  Ni  Ni19      1.0  0.66667  0.83333  0.33333  1.0000
  Ni  Ni20      1.0  0.00000  0.50000  0.46667  1.0000
  Ni  Ni21      1.0  0.83333  0.66667  0.40000  1.0000
  Ni  Ni22      1.0  0.66667  0.83333  0.53333  1.0000
  Ni  Ni23      1.0  0.00002  0.00005  0.66606  1.0000
  Ni  Ni24      1.0  0.83326  0.66660  0.60030  1.0000
