data_image0
_chemical_formula_structural       Zn3Ni9Zn3Ni9
_chemical_formula_sum              "Zn6 Ni18"
_cell_length_a       4.97265
_cell_length_b       4.97265
_cell_length_c       30.4511
_cell_angle_alpha    90
_cell_angle_beta     90
_cell_angle_gamma    60

_space_group_name_H-M_alt    "P 1"
_space_group_IT_number       1

loop_
  _space_group_symop_operation_xyz
  'x, y, z'

loop_
  _atom_site_type_symbol
  _atom_site_label
  _atom_site_symmetry_multiplicity
  _atom_site_fract_x
  _atom_site_fract_y
  _atom_site_fract_z
  _atom_site_occupancy
  Zn  Zn1       1.0  0.16667  0.66667  0.33333  1.0000
  Zn  Zn2       1.0  0.50000  0.00000  0.46667  1.0000
  Zn  Zn3       1.0  0.83333  0.33333  0.40000  1.0000
  Ni  Ni1       1.0  0.33333  0.83333  0.40000  1.0000
  Ni  Ni2       1.0  0.66667  0.16667  0.33333  1.0000
  Ni  Ni3       1.0  0.00000  0.50000  0.46667  1.0000
  Ni  Ni4       1.0  0.83333  0.83333  0.40000  1.0000
  Ni  Ni5       1.0  0.16667  0.16667  0.33333  1.0000
  Ni  Ni6       1.0  0.50000  0.50000  0.46667  1.0000
  Ni  Ni7       1.0  0.33333  0.33333  0.40000  1.0000
  Ni  Ni8       1.0  0.66667  0.66667  0.33333  1.0000
  Ni  Ni9       1.0  0.00000  0.00000  0.46667  1.0000
  Zn  Zn4       1.0  0.16667  0.66667  0.53333  1.0000
  Zn  Zn5       1.0  0.50002  0.00002  0.66662  1.0000
  Zn  Zn6       1.0  0.83332  0.33331  0.59946  1.0000
  Ni  Ni10      1.0  0.33531  0.83533  0.59900  1.0000
  Ni  Ni11      1.0  0.66667  0.16667  0.53333  1.0000
  Ni  Ni12      1.0  0.00071  0.50070  0.66324  1.0000
  Ni  Ni13      1.0  0.82929  0.83521  0.59899  1.0000
  Ni  Ni14      1.0  0.16667  0.16667  0.53333  1.0000
  Ni  Ni15      1.0  0.49833  0.50092  0.66326  1.0000
  Ni  Ni16      1.0  0.33521  0.32931  0.59899  1.0000
  Ni  Ni17      1.0  0.66667  0.66667  0.53333  1.0000
  Ni  Ni18      1.0  0.00091  0.99835  0.66326  1.0000
