data_image0
_chemical_formula_structural       Cu3Ni9Cu3Ni9
_chemical_formula_sum              "Cu6 Ni18"
_cell_length_a       4.92385
_cell_length_b       4.92385
_cell_length_c       30.1523
_cell_angle_alpha    90
_cell_angle_beta     90
_cell_angle_gamma    60

_space_group_name_H-M_alt    "P 1"
_space_group_IT_number       1

loop_
  _space_group_symop_operation_xyz
  'x, y, z'

loop_
  _atom_site_type_symbol
  _atom_site_label
  _atom_site_symmetry_multiplicity
  _atom_site_fract_x
  _atom_site_fract_y
  _atom_site_fract_z
  _atom_site_occupancy
  Cu  Cu1       1.0  0.66667  0.66667  0.46667  1.0000
  Cu  Cu2       1.0  0.00000  0.00000  0.40000  1.0000
  Cu  Cu3       1.0  0.33333  0.33333  0.33333  1.0000
  Ni  Ni1       1.0  0.50000  0.00000  0.40000  1.0000
  Ni  Ni2       1.0  0.83333  0.33333  0.33333  1.0000
  Ni  Ni3       1.0  0.16667  0.66667  0.46667  1.0000
  Ni  Ni4       1.0  0.00000  0.50000  0.40000  1.0000
  Ni  Ni5       1.0  0.33333  0.83333  0.33333  1.0000
  Ni  Ni6       1.0  0.66667  0.16667  0.46667  1.0000
  Ni  Ni7       1.0  0.50000  0.50000  0.40000  1.0000
  Ni  Ni8       1.0  0.83333  0.83333  0.33333  1.0000
  Ni  Ni9       1.0  0.16667  0.16667  0.46667  1.0000
  Cu  Cu4       1.0  0.66670  0.66664  0.66736  1.0000
  Cu  Cu5       1.0  0.99997  0.00001  0.59912  1.0000
  Cu  Cu6       1.0  0.33333  0.33333  0.53333  1.0000
  Ni  Ni10      1.0  0.50103  0.99796  0.60016  1.0000
  Ni  Ni11      1.0  0.83333  0.33333  0.53333  1.0000
  Ni  Ni12      1.0  0.16737  0.66552  0.66545  1.0000
  Ni  Ni13      1.0  0.99797  0.50100  0.60015  1.0000
  Ni  Ni14      1.0  0.33333  0.83333  0.53333  1.0000
  Ni  Ni15      1.0  0.66555  0.16724  0.66543  1.0000
  Ni  Ni16      1.0  0.50094  0.50091  0.60017  1.0000
  Ni  Ni17      1.0  0.83333  0.83333  0.53333  1.0000
  Ni  Ni18      1.0  0.16735  0.16715  0.66544  1.0000
