data_image0
_chemical_formula_structural       Ni12Sc6Ni12Sc6Ni12Sc6Ni12Sc6
_chemical_formula_sum              "Ni48 Sc24"
_cell_length_a       9.6858
_cell_length_b       9.6858
_cell_length_c       35.5879
_cell_angle_alpha    90
_cell_angle_beta     90
_cell_angle_gamma    120

_space_group_name_H-M_alt    "P 1"
_space_group_IT_number       1

loop_
  _space_group_symop_operation_xyz
  'x, y, z'

loop_
  _atom_site_type_symbol
  _atom_site_label
  _atom_site_symmetry_multiplicity
  _atom_site_fract_x
  _atom_site_fract_y
  _atom_site_fract_z
  _atom_site_occupancy
  Ni  Ni1       1.0  0.41734  0.08266  0.63662  1.0000
  Ni  Ni2       1.0  0.25002  0.24998  0.52791  1.0000
  Ni  Ni3       1.0  0.08333  0.41667  0.41667  1.0000
  Ni  Ni4       1.0  0.99996  0.24998  0.52791  1.0000
  Ni  Ni5       1.0  0.33333  0.41667  0.41667  1.0000
  Ni  Ni6       1.0  0.16532  0.08266  0.63662  1.0000
  Ni  Ni7       1.0  0.41734  0.33468  0.63662  1.0000
  Ni  Ni8       1.0  0.25002  0.00005  0.52791  1.0000
  Ni  Ni9       1.0  0.08333  0.16667  0.41667  1.0000
  Ni  Ni10      1.0  0.16667  0.33333  0.47269  1.0000
  Ni  Ni11      1.0  0.00000  0.00000  0.36111  1.0000
  Ni  Ni12      1.0  0.33333  0.16667  0.58301  1.0000
  Sc  Sc1       1.0  1.00000  1.00000  0.56978  1.0000
  Sc  Sc2       1.0  0.33333  0.16667  0.45833  1.0000
  Sc  Sc3       1.0  0.16667  0.33333  0.34722  1.0000
  Sc  Sc4       1.0  0.00000  0.00000  0.48616  1.0000
  Sc  Sc5       1.0  0.33333  0.16667  0.37500  1.0000
  Sc  Sc6       1.0  0.16666  0.33333  0.60373  1.0000
  Ni  Ni13      1.0  0.41734  0.58266  0.63662  1.0000
  Ni  Ni14      1.0  0.25003  0.74997  0.52791  1.0000
  Ni  Ni15      1.0  0.08333  0.91667  0.41667  1.0000
  Ni  Ni16      1.0  0.99995  0.74998  0.52791  1.0000
  Ni  Ni17      1.0  0.33333  0.91667  0.41667  1.0000
  Ni  Ni18      1.0  0.16532  0.58266  0.63662  1.0000
  Ni  Ni19      1.0  0.41734  0.83468  0.63662  1.0000
  Ni  Ni20      1.0  0.25002  0.50004  0.52791  1.0000
  Ni  Ni21      1.0  0.08333  0.66667  0.41667  1.0000
  Ni  Ni22      1.0  0.16667  0.83333  0.47269  1.0000
  Ni  Ni23      1.0  0.00000  0.50000  0.36111  1.0000
  Ni  Ni24      1.0  0.33334  0.66667  0.58301  1.0000
  Sc  Sc7       1.0  1.00000  0.50000  0.56978  1.0000
  Sc  Sc8       1.0  0.33333  0.66667  0.45833  1.0000
  Sc  Sc9       1.0  0.16667  0.83333  0.34722  1.0000
  Sc  Sc10      1.0  0.00000  0.50000  0.48616  1.0000
  Sc  Sc11      1.0  0.33333  0.66667  0.37500  1.0000
  Sc  Sc12      1.0  0.16666  0.83333  0.60373  1.0000
  Ni  Ni25      1.0  0.91734  0.08266  0.63662  1.0000
  Ni  Ni26      1.0  0.75003  0.24997  0.52791  1.0000
  Ni  Ni27      1.0  0.58333  0.41667  0.41667  1.0000
  Ni  Ni28      1.0  0.49995  0.24998  0.52791  1.0000
  Ni  Ni29      1.0  0.83333  0.41667  0.41667  1.0000
  Ni  Ni30      1.0  0.66532  0.08266  0.63662  1.0000
  Ni  Ni31      1.0  0.91734  0.33468  0.63662  1.0000
  Ni  Ni32      1.0  0.75002  0.00004  0.52791  1.0000
  Ni  Ni33      1.0  0.58333  0.16667  0.41667  1.0000
  Ni  Ni34      1.0  0.66667  0.33333  0.47269  1.0000
  Ni  Ni35      1.0  0.50000  0.00000  0.36111  1.0000
  Ni  Ni36      1.0  0.83333  0.16666  0.58301  1.0000
  Sc  Sc13      1.0  0.50000  0.00000  0.56978  1.0000
  Sc  Sc14      1.0  0.83333  0.16667  0.45833  1.0000
  Sc  Sc15      1.0  0.66667  0.33333  0.34722  1.0000
  Sc  Sc16      1.0  0.50000  1.00000  0.48616  1.0000
  Sc  Sc17      1.0  0.83333  0.16667  0.37500  1.0000
  Sc  Sc18      1.0  0.66667  0.33334  0.60373  1.0000
  Ni  Ni37      1.0  0.91734  0.58266  0.63662  1.0000
  Ni  Ni38      1.0  0.75002  0.74998  0.52791  1.0000
  Ni  Ni39      1.0  0.58333  0.91667  0.41667  1.0000
  Ni  Ni40      1.0  0.49995  0.74998  0.52791  1.0000
  Ni  Ni41      1.0  0.83333  0.91667  0.41667  1.0000
  Ni  Ni42      1.0  0.66532  0.58266  0.63662  1.0000
  Ni  Ni43      1.0  0.91734  0.83468  0.63662  1.0000
  Ni  Ni44      1.0  0.75002  0.50005  0.52791  1.0000
  Ni  Ni45      1.0  0.58333  0.66667  0.41667  1.0000
  Ni  Ni46      1.0  0.66667  0.83333  0.47269  1.0000
  Ni  Ni47      1.0  0.50000  0.50000  0.36111  1.0000
  Ni  Ni48      1.0  0.83333  0.66667  0.58301  1.0000
  Sc  Sc19      1.0  0.50000  0.50000  0.56978  1.0000
  Sc  Sc20      1.0  0.83333  0.66667  0.45833  1.0000
  Sc  Sc21      1.0  0.66667  0.83333  0.34722  1.0000
  Sc  Sc22      1.0  0.50000  0.50000  0.48616  1.0000
  Sc  Sc23      1.0  0.83333  0.66667  0.37500  1.0000
  Sc  Sc24      1.0  0.66668  0.83334  0.60373  1.0000
