data_image0
_chemical_formula_structural       C8
_chemical_formula_sum              "C8"
_cell_length_a       4.75955
_cell_length_b       4.75955
_cell_length_c       34.9754
_cell_angle_alpha    90
_cell_angle_beta     90
_cell_angle_gamma    120

_space_group_name_H-M_alt    "P 1"
_space_group_IT_number       1

loop_
  _space_group_symop_operation_xyz
  'x, y, z'

loop_
  _atom_site_type_symbol
  _atom_site_label
  _atom_site_symmetry_multiplicity
  _atom_site_fract_x
  _atom_site_fract_y
  _atom_site_fract_z
  _atom_site_occupancy
  C   C1        1.0  0.99983  0.99978  0.70250  1.0000
  C   C2        1.0  0.16661  0.33337  0.70251  1.0000
  C   C3        1.0  0.49984  0.99978  0.70250  1.0000
  C   C4        1.0  0.66662  0.33337  0.70251  1.0000
  C   C5        1.0  0.99984  0.49978  0.70248  1.0000
  C   C6        1.0  0.16661  0.83336  0.70250  1.0000
  C   C7        1.0  0.49984  0.49979  0.70251  1.0000
  C   C8        1.0  0.66661  0.83336  0.70244  1.0000
