data_image0
_chemical_formula_structural       C8
_chemical_formula_sum              "C8"
_cell_length_a       4.86188
_cell_length_b       4.95803
_cell_length_c       29.1713
_cell_angle_alpha    90
_cell_angle_beta     90
_cell_angle_gamma    119.361

_space_group_name_H-M_alt    "P 1"
_space_group_IT_number       1

loop_
  _space_group_symop_operation_xyz
  'x, y, z'

loop_
  _atom_site_type_symbol
  _atom_site_label
  _atom_site_symmetry_multiplicity
  _atom_site_fract_x
  _atom_site_fract_y
  _atom_site_fract_z
  _atom_site_occupancy
  C   C1        1.0  0.98784  0.97587  0.73237  1.0000
  C   C2        1.0  0.15402  0.30816  0.73232  1.0000
  C   C3        1.0  0.48786  0.97586  0.73225  1.0000
  C   C4        1.0  0.65407  0.30824  0.73231  1.0000
  C   C5        1.0  0.98789  0.47590  0.73230  1.0000
  C   C6        1.0  0.15404  0.80821  0.73229  1.0000
  C   C7        1.0  0.48789  0.47587  0.73230  1.0000
  C   C8        1.0  0.65400  0.80818  0.73229  1.0000
