data_image0
_chemical_formula_structural       Ni9Pt3Ni9Pt3C8
_chemical_formula_sum              "Ni18 Pt6 C8"
_cell_length_a       5.0746
_cell_length_b       5.0746
_cell_length_c       31.0754
_cell_angle_alpha    90
_cell_angle_beta     90
_cell_angle_gamma    60

_space_group_name_H-M_alt    "P 1"
_space_group_IT_number       1

loop_
  _space_group_symop_operation_xyz
  'x, y, z'

loop_
  _atom_site_type_symbol
  _atom_site_label
  _atom_site_symmetry_multiplicity
  _atom_site_fract_x
  _atom_site_fract_y
  _atom_site_fract_z
  _atom_site_occupancy
  Ni  Ni1       1.0  0.33333  0.83333  0.40000  1.0000
  Ni  Ni2       1.0  0.66667  0.16667  0.33333  1.0000
  Ni  Ni3       1.0  0.00000  0.50000  0.46667  1.0000
  Ni  Ni4       1.0  0.83333  0.83333  0.40000  1.0000
  Ni  Ni5       1.0  0.16667  0.16667  0.33333  1.0000
  Ni  Ni6       1.0  0.50000  0.50000  0.46667  1.0000
  Ni  Ni7       1.0  0.83333  0.33333  0.40000  1.0000
  Ni  Ni8       1.0  0.16667  0.66667  0.33333  1.0000
  Ni  Ni9       1.0  0.50000  0.00000  0.46667  1.0000
  Pt  Pt1       1.0  0.66667  0.66667  0.33333  1.0000
  Pt  Pt2       1.0  0.00000  0.00000  0.46667  1.0000
  Pt  Pt3       1.0  0.33333  0.33333  0.40000  1.0000
  Ni  Ni10      1.0  0.33433  0.83276  0.59992  1.0000
  Ni  Ni11      1.0  0.66667  0.16667  0.53333  1.0000
  Ni  Ni12      1.0  0.99947  0.50061  0.66723  1.0000
  Ni  Ni13      1.0  0.83036  0.83255  0.59994  1.0000
  Ni  Ni14      1.0  0.16667  0.16667  0.53333  1.0000
  Ni  Ni15      1.0  0.49994  0.50064  0.66717  1.0000
  Ni  Ni16      1.0  0.83033  0.33717  0.59993  1.0000
  Ni  Ni17      1.0  0.16667  0.66667  0.53333  1.0000
  Ni  Ni18      1.0  0.50026  0.99974  0.66720  1.0000
  Pt  Pt4       1.0  0.66667  0.66667  0.53333  1.0000
  Pt  Pt5       1.0  0.99955  0.00102  0.66418  1.0000
  Pt  Pt6       1.0  0.33179  0.33391  0.60001  1.0000
  C   C1        1.0  0.00539  0.00617  0.73778  1.0000
  C   C2        1.0  0.17245  0.67202  0.73864  1.0000
  C   C3        1.0  0.50512  0.00646  0.73786  1.0000
  C   C4        1.0  0.67211  0.67289  0.73749  1.0000
  C   C5        1.0  0.50508  0.50593  0.73787  1.0000
  C   C6        1.0  0.67129  0.17325  0.73864  1.0000
  C   C7        1.0  0.00571  0.50592  0.73785  1.0000
  C   C8        1.0  0.17243  0.17331  0.73866  1.0000
