data_image0
_chemical_formula_structural       Pd8Zr4C8
_chemical_formula_sum              "Pd8 Zr4 C8"
_cell_length_a       4.86188
_cell_length_b       4.95803
_cell_length_c       29.1713
_cell_angle_alpha    90
_cell_angle_beta     90
_cell_angle_gamma    119.361

_space_group_name_H-M_alt    "P 1"
_space_group_IT_number       1

loop_
  _space_group_symop_operation_xyz
  'x, y, z'

loop_
  _atom_site_type_symbol
  _atom_site_label
  _atom_site_symmetry_multiplicity
  _atom_site_fract_x
  _atom_site_fract_y
  _atom_site_fract_z
  _atom_site_occupancy
  Pd  Pd1       1.0  0.82198  0.64062  0.54301  1.0000
  Pd  Pd2       1.0  0.32600  0.65415  0.61930  1.0000
  Pd  Pd3       1.0  0.99840  0.99841  0.61858  1.0000
  Pd  Pd4       1.0  0.50468  0.00783  0.54303  1.0000
  Pd  Pd5       1.0  0.82527  0.65054  0.37500  1.0000
  Pd  Pd6       1.0  0.32527  0.65054  0.45833  1.0000
  Pd  Pd7       1.0  0.00000  0.00000  0.45833  1.0000
  Pd  Pd8       1.0  0.50000  0.00000  0.37500  1.0000
  Zr  Zr1       1.0  0.66141  0.32382  0.62966  1.0000
  Zr  Zr2       1.0  0.16388  0.32603  0.54026  1.0000
  Zr  Zr3       1.0  0.66264  0.32527  0.45833  1.0000
  Zr  Zr4       1.0  0.16264  0.32527  0.37500  1.0000
  C   C1        1.0  0.99042  0.98133  0.70511  1.0000
  C   C2        1.0  0.82478  0.65009  0.70713  1.0000
  C   C3        1.0  0.49023  0.98097  0.70678  1.0000
  C   C4        1.0  0.32454  0.64957  0.70479  1.0000
  C   C5        1.0  0.98977  0.48059  0.70722  1.0000
  C   C6        1.0  0.82481  0.15024  0.70722  1.0000
  C   C7        1.0  0.49031  0.48052  0.70724  1.0000
  C   C8        1.0  0.32488  0.15022  0.70722  1.0000
