data_image0
_chemical_formula_structural       Cu9Ni3Cu9Ni3C8
_chemical_formula_sum              "Cu18 Ni6 C8"
_cell_length_a       4.99217
_cell_length_b       4.99217
_cell_length_c       30.5707
_cell_angle_alpha    90
_cell_angle_beta     90
_cell_angle_gamma    60

_space_group_name_H-M_alt    "P 1"
_space_group_IT_number       1

loop_
  _space_group_symop_operation_xyz
  'x, y, z'

loop_
  _atom_site_type_symbol
  _atom_site_label
  _atom_site_symmetry_multiplicity
  _atom_site_fract_x
  _atom_site_fract_y
  _atom_site_fract_z
  _atom_site_occupancy
  Cu  Cu1       1.0  0.50000  0.00000  0.40000  1.0000
  Cu  Cu2       1.0  0.83333  0.33333  0.33333  1.0000
  Cu  Cu3       1.0  0.16667  0.66667  0.46667  1.0000
  Cu  Cu4       1.0  0.00000  0.50000  0.40000  1.0000
  Cu  Cu5       1.0  0.33333  0.83333  0.33333  1.0000
  Cu  Cu6       1.0  0.66667  0.16667  0.46667  1.0000
  Cu  Cu7       1.0  0.50000  0.50000  0.40000  1.0000
  Cu  Cu8       1.0  0.83333  0.83333  0.33333  1.0000
  Cu  Cu9       1.0  0.16667  0.16667  0.46667  1.0000
  Ni  Ni1       1.0  0.66667  0.66667  0.46667  1.0000
  Ni  Ni2       1.0  0.00000  0.00000  0.40000  1.0000
  Ni  Ni3       1.0  0.33333  0.33333  0.33333  1.0000
  Cu  Cu10      1.0  0.49079  0.00363  0.59910  1.0000
  Cu  Cu11      1.0  0.83333  0.33333  0.53333  1.0000
  Cu  Cu12      1.0  0.16141  0.66247  0.66478  1.0000
  Cu  Cu13      1.0  0.99185  0.50419  0.59905  1.0000
  Cu  Cu14      1.0  0.33333  0.83333  0.53333  1.0000
  Cu  Cu15      1.0  0.66176  0.16200  0.66476  1.0000
  Cu  Cu16      1.0  0.49924  0.49973  0.59852  1.0000
  Cu  Cu17      1.0  0.83333  0.83333  0.53333  1.0000
  Cu  Cu18      1.0  0.15862  0.16503  0.66490  1.0000
  Ni  Ni4       1.0  0.65825  0.66545  0.66449  1.0000
  Ni  Ni5       1.0  0.99708  0.99965  0.59950  1.0000
  Ni  Ni6       1.0  0.33333  0.33333  0.53333  1.0000
  C   C1        1.0  0.01425  0.01332  0.77242  1.0000
  C   C2        1.0  0.18063  0.68012  0.77231  1.0000
  C   C3        1.0  0.51422  0.01342  0.77226  1.0000
  C   C4        1.0  0.68069  0.68007  0.77208  1.0000
  C   C5        1.0  0.51422  0.51329  0.77222  1.0000
  C   C6        1.0  0.68073  0.18003  0.77231  1.0000
  C   C7        1.0  0.01435  0.51329  0.77227  1.0000
  C   C8        1.0  0.18066  0.18006  0.77234  1.0000
