data_image0
_chemical_formula_structural       CHf6Ni12
_chemical_formula_sum              "C1 Hf6 Ni12"
_cell_length_a       4.84346
_cell_length_b       4.84346
_cell_length_c       35.592
_cell_angle_alpha    90
_cell_angle_beta     90
_cell_angle_gamma    60

_space_group_name_H-M_alt    "P 1"
_space_group_IT_number       1

loop_
  _space_group_symop_operation_xyz
  'x, y, z'

loop_
  _atom_site_type_symbol
  _atom_site_label
  _atom_site_symmetry_multiplicity
  _atom_site_fract_x
  _atom_site_fract_y
  _atom_site_fract_z
  _atom_site_occupancy
  C   C1        1.0  0.96860  0.05903  0.69106  1.0000
  Hf  Hf1       1.0  0.30027  0.39946  0.39749  1.0000
  Hf  Hf2       1.0  0.96694  0.06612  0.50860  1.0000
  Hf  Hf3       1.0  0.63427  0.72737  0.62507  1.0000
  Hf  Hf4       1.0  0.30027  0.39946  0.48083  1.0000
  Hf  Hf5       1.0  0.96720  0.06243  0.59076  1.0000
  Hf  Hf6       1.0  0.63360  0.73279  0.36972  1.0000
  Ni  Ni1       1.0  0.80027  0.89946  0.43916  1.0000
  Ni  Ni2       1.0  0.46694  0.56612  0.55027  1.0000
  Ni  Ni3       1.0  0.13730  0.22833  0.66037  1.0000
  Ni  Ni4       1.0  0.30027  0.89946  0.43916  1.0000
  Ni  Ni5       1.0  0.96694  0.56612  0.55027  1.0000
  Ni  Ni6       1.0  0.63018  0.22847  0.66050  1.0000
  Ni  Ni7       1.0  0.63360  0.73279  0.49472  1.0000
  Ni  Ni8       1.0  0.30112  0.39679  0.60502  1.0000
  Ni  Ni9       1.0  0.96694  0.06612  0.38360  1.0000
  Ni  Ni10      1.0  0.80027  0.39946  0.43916  1.0000
  Ni  Ni11      1.0  0.46694  0.06612  0.55027  1.0000
  Ni  Ni12      1.0  0.13654  0.72103  0.66055  1.0000
