data_image0
_chemical_formula_structural       Cu3Ni9Cu3Ni9Cu3Ni9Cu3Ni9Cu3Ni9Cu3Ni9Cu3Ni9Cu3Ni9
_chemical_formula_sum              "Cu24 Ni72"
_cell_length_a       9.90155
_cell_length_b       9.90155
_cell_length_c       36.3806
_cell_angle_alpha    90
_cell_angle_beta     90
_cell_angle_gamma    60

_space_group_name_H-M_alt    "P 1"
_space_group_IT_number       1

loop_
  _space_group_symop_operation_xyz
  'x, y, z'

loop_
  _atom_site_type_symbol
  _atom_site_label
  _atom_site_symmetry_multiplicity
  _atom_site_fract_x
  _atom_site_fract_y
  _atom_site_fract_z
  _atom_site_occupancy
  Cu  Cu1       1.0  0.33333  0.33333  0.47222  1.0000
  Cu  Cu2       1.0  0.00000  0.00000  0.41667  1.0000
  Cu  Cu3       1.0  0.16667  0.16667  0.36111  1.0000
  Ni  Ni1       1.0  0.25000  0.00000  0.41667  1.0000
  Ni  Ni2       1.0  0.41667  0.16667  0.36111  1.0000
  Ni  Ni3       1.0  0.08333  0.33333  0.47222  1.0000
  Ni  Ni4       1.0  0.00000  0.25000  0.41667  1.0000
  Ni  Ni5       1.0  0.16667  0.41667  0.36111  1.0000
  Ni  Ni6       1.0  0.33333  0.08333  0.47222  1.0000
  Ni  Ni7       1.0  0.25000  0.25000  0.41667  1.0000
  Ni  Ni8       1.0  0.41667  0.41667  0.36111  1.0000
  Ni  Ni9       1.0  0.08333  0.08333  0.47222  1.0000
  Cu  Cu4       1.0  0.33334  0.33334  0.64154  1.0000
  Cu  Cu5       1.0  1.00000  1.00000  0.58293  1.0000
  Cu  Cu6       1.0  0.16667  0.16666  0.52768  1.0000
  Ni  Ni10      1.0  0.25061  0.99878  0.58333  1.0000
  Ni  Ni11      1.0  0.41678  0.16644  0.52769  1.0000
  Ni  Ni12      1.0  0.08361  0.33280  0.63867  1.0000
  Ni  Ni13      1.0  0.99875  0.25064  0.58334  1.0000
  Ni  Ni14      1.0  0.16643  0.41679  0.52769  1.0000
  Ni  Ni15      1.0  0.33274  0.08364  0.63868  1.0000
  Ni  Ni16      1.0  0.25061  0.25062  0.58333  1.0000
  Ni  Ni17      1.0  0.41678  0.41679  0.52769  1.0000
  Ni  Ni18      1.0  0.08361  0.08361  0.63866  1.0000
  Cu  Cu7       1.0  0.33333  0.83333  0.47222  1.0000
  Cu  Cu8       1.0  0.00000  0.50000  0.41667  1.0000
  Cu  Cu9       1.0  0.16667  0.66667  0.36111  1.0000
  Ni  Ni19      1.0  0.25000  0.50000  0.41667  1.0000
  Ni  Ni20      1.0  0.41667  0.66667  0.36111  1.0000
  Ni  Ni21      1.0  0.08333  0.83333  0.47222  1.0000
  Ni  Ni22      1.0  0.00000  0.75000  0.41667  1.0000
  Ni  Ni23      1.0  0.16667  0.91667  0.36111  1.0000
  Ni  Ni24      1.0  0.33333  0.58333  0.47222  1.0000
  Ni  Ni25      1.0  0.25000  0.75000  0.41667  1.0000
  Ni  Ni26      1.0  0.41667  0.91667  0.36111  1.0000
  Ni  Ni27      1.0  0.08333  0.58333  0.47222  1.0000
  Cu  Cu10      1.0  0.33335  0.83333  0.64155  1.0000
  Cu  Cu11      1.0  0.99998  0.50001  0.58293  1.0000
  Cu  Cu12      1.0  0.16667  0.66667  0.52768  1.0000
  Ni  Ni28      1.0  0.25061  0.49878  0.58333  1.0000
  Ni  Ni29      1.0  0.41678  0.66643  0.52770  1.0000
  Ni  Ni30      1.0  0.08361  0.83277  0.63867  1.0000
  Ni  Ni31      1.0  0.99876  0.75061  0.58335  1.0000
  Ni  Ni32      1.0  0.16644  0.91678  0.52770  1.0000
  Ni  Ni33      1.0  0.33278  0.58361  0.63867  1.0000
  Ni  Ni34      1.0  0.25059  0.75059  0.58332  1.0000
  Ni  Ni35      1.0  0.41679  0.91678  0.52770  1.0000
  Ni  Ni36      1.0  0.08361  0.58361  0.63867  1.0000
  Cu  Cu13      1.0  0.83333  0.33333  0.47222  1.0000
  Cu  Cu14      1.0  0.50000  0.00000  0.41667  1.0000
  Cu  Cu15      1.0  0.66667  0.16667  0.36111  1.0000
  Ni  Ni37      1.0  0.75000  0.00000  0.41667  1.0000
  Ni  Ni38      1.0  0.91667  0.16667  0.36111  1.0000
  Ni  Ni39      1.0  0.58333  0.33333  0.47222  1.0000
  Ni  Ni40      1.0  0.50000  0.25000  0.41667  1.0000
  Ni  Ni41      1.0  0.66667  0.41667  0.36111  1.0000
  Ni  Ni42      1.0  0.83333  0.08333  0.47222  1.0000
  Ni  Ni43      1.0  0.75000  0.25000  0.41667  1.0000
  Ni  Ni44      1.0  0.91667  0.41667  0.36111  1.0000
  Ni  Ni45      1.0  0.58333  0.08333  0.47222  1.0000
  Cu  Cu16      1.0  0.83333  0.33335  0.64154  1.0000
  Cu  Cu17      1.0  0.50001  0.99999  0.58292  1.0000
  Cu  Cu18      1.0  0.66666  0.16667  0.52769  1.0000
  Ni  Ni46      1.0  0.75063  0.99875  0.58334  1.0000
  Ni  Ni47      1.0  0.91678  0.16644  0.52770  1.0000
  Ni  Ni48      1.0  0.58362  0.33275  0.63869  1.0000
  Ni  Ni49      1.0  0.49875  0.25064  0.58334  1.0000
  Ni  Ni50      1.0  0.66643  0.41679  0.52770  1.0000
  Ni  Ni51      1.0  0.83278  0.08361  0.63866  1.0000
  Ni  Ni52      1.0  0.75059  0.25060  0.58332  1.0000
  Ni  Ni53      1.0  0.91679  0.41679  0.52770  1.0000
  Ni  Ni54      1.0  0.58363  0.08364  0.63868  1.0000
  Cu  Cu19      1.0  0.83333  0.83333  0.47222  1.0000
  Cu  Cu20      1.0  0.50000  0.50000  0.41667  1.0000
  Cu  Cu21      1.0  0.66667  0.66667  0.36111  1.0000
  Ni  Ni55      1.0  0.75000  0.50000  0.41667  1.0000
  Ni  Ni56      1.0  0.91667  0.66667  0.36111  1.0000
  Ni  Ni57      1.0  0.58333  0.83333  0.47222  1.0000
  Ni  Ni58      1.0  0.50000  0.75000  0.41667  1.0000
  Ni  Ni59      1.0  0.66667  0.91667  0.36111  1.0000
  Ni  Ni60      1.0  0.83333  0.58333  0.47222  1.0000
  Ni  Ni61      1.0  0.75000  0.75000  0.41667  1.0000
  Ni  Ni62      1.0  0.91667  0.91667  0.36111  1.0000
  Ni  Ni63      1.0  0.58333  0.58333  0.47222  1.0000
  Cu  Cu22      1.0  0.83333  0.83333  0.64154  1.0000
  Cu  Cu23      1.0  0.50001  0.50000  0.58293  1.0000
  Cu  Cu24      1.0  0.66666  0.66667  0.52769  1.0000
  Ni  Ni64      1.0  0.75063  0.49875  0.58334  1.0000
  Ni  Ni65      1.0  0.91679  0.66643  0.52769  1.0000
  Ni  Ni66      1.0  0.58363  0.83274  0.63868  1.0000
  Ni  Ni67      1.0  0.49878  0.75061  0.58333  1.0000
  Ni  Ni68      1.0  0.66644  0.91678  0.52770  1.0000
  Ni  Ni69      1.0  0.83279  0.58360  0.63867  1.0000
  Ni  Ni70      1.0  0.75061  0.75059  0.58331  1.0000
  Ni  Ni71      1.0  0.91678  0.91677  0.52770  1.0000
  Ni  Ni72      1.0  0.58363  0.58363  0.63869  1.0000
