data_image0
_chemical_formula_structural       C8
_chemical_formula_sum              "C8"
_cell_length_a       4.8079
_cell_length_b       4.8079
_cell_length_c       35.3307
_cell_angle_alpha    90
_cell_angle_beta     90
_cell_angle_gamma    120

_space_group_name_H-M_alt    "P 1"
_space_group_IT_number       1

loop_
  _space_group_symop_operation_xyz
  'x, y, z'

loop_
  _atom_site_type_symbol
  _atom_site_label
  _atom_site_symmetry_multiplicity
  _atom_site_fract_x
  _atom_site_fract_y
  _atom_site_fract_z
  _atom_site_occupancy
  C   C1        1.0  0.99966  0.99978  0.70172  1.0000
  C   C2        1.0  0.16607  0.33335  0.70169  1.0000
  C   C3        1.0  0.49966  0.99976  0.70171  1.0000
  C   C4        1.0  0.66608  0.33340  0.70173  1.0000
  C   C5        1.0  0.99963  0.49979  0.70172  1.0000
  C   C6        1.0  0.16601  0.83333  0.70173  1.0000
  C   C7        1.0  0.49963  0.49975  0.70172  1.0000
  C   C8        1.0  0.66606  0.83334  0.70173  1.0000
