data_image0
_chemical_formula_structural       C8
_chemical_formula_sum              "C8"
_cell_length_a       4.82064
_cell_length_b       4.82064
_cell_length_c       35.4243
_cell_angle_alpha    90
_cell_angle_beta     90
_cell_angle_gamma    120

_space_group_name_H-M_alt    "P 1"
_space_group_IT_number       1

loop_
  _space_group_symop_operation_xyz
  'x, y, z'

loop_
  _atom_site_type_symbol
  _atom_site_label
  _atom_site_symmetry_multiplicity
  _atom_site_fract_x
  _atom_site_fract_y
  _atom_site_fract_z
  _atom_site_occupancy
  C   C1        1.0  0.00008  0.00005  0.70102  1.0000
  C   C2        1.0  0.16649  0.33325  0.70102  1.0000
  C   C3        1.0  0.50008  0.00004  0.70103  1.0000
  C   C4        1.0  0.66650  0.33327  0.70101  1.0000
  C   C5        1.0  0.00007  0.50003  0.70102  1.0000
  C   C6        1.0  0.16646  0.83324  0.70101  1.0000
  C   C7        1.0  0.50005  0.50002  0.70102  1.0000
  C   C8        1.0  0.66649  0.83326  0.70101  1.0000
