data_image0
_chemical_formula_structural       Ni2Cu2Ni2Cu2Ni2Cu2Ni2Cu2Ni2Cu2Ni2Cu2C8
_chemical_formula_sum              "Ni12 Cu12 C8"
_cell_length_a       4.87422
_cell_length_b       4.98742
_cell_length_c       34.095
_cell_angle_alpha    90
_cell_angle_beta     90
_cell_angle_gamma    119.252

_space_group_name_H-M_alt    "P 1"
_space_group_IT_number       1

loop_
  _space_group_symop_operation_xyz
  'x, y, z'

loop_
  _atom_site_type_symbol
  _atom_site_label
  _atom_site_symmetry_multiplicity
  _atom_site_fract_x
  _atom_site_fract_y
  _atom_site_fract_z
  _atom_site_occupancy
  Ni  Ni1       1.0  0.71580  0.93160  0.35196  1.0000
  Ni  Ni2       1.0  0.21580  0.93160  0.35196  1.0000
  Cu  Cu1       1.0  0.21580  0.43160  0.35196  1.0000
  Cu  Cu2       1.0  0.71580  0.43160  0.35196  1.0000
  Ni  Ni3       1.0  0.37264  0.24528  0.41117  1.0000
  Ni  Ni4       1.0  0.87264  0.24528  0.41117  1.0000
  Cu  Cu3       1.0  0.87264  0.74528  0.41117  1.0000
  Cu  Cu4       1.0  0.37264  0.74528  0.41117  1.0000
  Ni  Ni5       1.0  0.02948  0.55896  0.47039  1.0000
  Ni  Ni6       1.0  0.52948  0.55896  0.47039  1.0000
  Cu  Cu5       1.0  0.52948  0.05896  0.47039  1.0000
  Cu  Cu6       1.0  0.02948  0.05896  0.47039  1.0000
  Ni  Ni7       1.0  0.68632  0.87264  0.52961  1.0000
  Ni  Ni8       1.0  0.18632  0.87264  0.52961  1.0000
  Cu  Cu7       1.0  0.18632  0.37264  0.52961  1.0000
  Cu  Cu8       1.0  0.68632  0.37264  0.52961  1.0000
  Ni  Ni9       1.0  0.34974  0.20064  0.58849  1.0000
  Ni  Ni10      1.0  0.84975  0.20068  0.58848  1.0000
  Cu  Cu9       1.0  0.84231  0.69526  0.58964  1.0000
  Cu  Cu10      1.0  0.34224  0.69527  0.58965  1.0000
  Ni  Ni11      1.0  0.00158  0.51220  0.65028  1.0000
  Ni  Ni12      1.0  0.50165  0.51230  0.65028  1.0000
  Cu  Cu11      1.0  0.51027  0.02118  0.64627  1.0000
  Cu  Cu12      1.0  0.01028  0.02114  0.64627  1.0000
  C   C1        1.0  0.01608  0.02986  0.71650  1.0000
  C   C2        1.0  0.18229  0.36194  0.71483  1.0000
  C   C3        1.0  0.51607  0.02985  0.71650  1.0000
  C   C4        1.0  0.68230  0.36195  0.71483  1.0000
  C   C5        1.0  0.01646  0.53073  0.71447  1.0000
  C   C6        1.0  0.18287  0.86319  0.71662  1.0000
  C   C7        1.0  0.51647  0.53074  0.71446  1.0000
  C   C8        1.0  0.68288  0.86320  0.71662  1.0000
